Version 4
SHEET 1 1016 680
WIRE -240 -704 -480 -704
WIRE -480 -688 -480 -704
WIRE 272 -640 208 -640
WIRE 384 -640 336 -640
WIRE -240 -624 -240 -704
WIRE -240 -624 -352 -624
WIRE -352 -560 -352 -624
WIRE -336 -560 -352 -560
WIRE -912 -544 -912 -560
WIRE -752 -544 -912 -544
WIRE -624 -544 -672 -544
WIRE -576 -544 -624 -544
WIRE -480 -544 -480 -624
WIRE -480 -544 -496 -544
WIRE -464 -544 -480 -544
WIRE -368 -544 -384 -544
WIRE -240 -544 -240 -624
WIRE -240 -544 -272 -544
WIRE -16 -544 -240 -544
WIRE 208 -544 208 -640
WIRE 208 -544 64 -544
WIRE 272 -544 208 -544
WIRE 384 -544 384 -640
WIRE 384 -544 352 -544
WIRE -368 -528 -368 -544
WIRE -336 -528 -368 -528
WIRE -624 -512 -624 -544
WIRE -368 -496 -368 -528
WIRE 208 -432 208 -544
WIRE 240 -432 208 -432
WIRE 384 -432 384 -544
WIRE 592 -432 384 -432
WIRE 704 -432 592 -432
WIRE -624 -416 -624 -448
WIRE -368 -416 -368 -432
WIRE 384 -416 384 -432
WIRE 384 -416 368 -416
WIRE 240 -400 16 -400
WIRE 384 -384 368 -384
WIRE 240 -368 208 -368
WIRE 384 -368 384 -384
WIRE 672 -368 384 -368
WIRE 704 -368 672 -368
WIRE 320 -336 320 -352
WIRE 400 -336 320 -336
WIRE 592 -336 592 -432
WIRE 672 -336 672 -368
WIRE 112 -256 48 -256
WIRE 208 -256 208 -368
WIRE 208 -256 192 -256
WIRE 272 -256 208 -256
WIRE 384 -256 384 -368
WIRE 384 -256 352 -256
WIRE -240 -128 -480 -128
WIRE -480 -112 -480 -128
WIRE 272 -64 208 -64
WIRE 384 -64 336 -64
WIRE -240 -48 -240 -128
WIRE -240 -48 -352 -48
WIRE -352 16 -352 -48
WIRE -336 16 -352 16
WIRE -912 32 -912 16
WIRE -752 32 -912 32
WIRE -624 32 -672 32
WIRE -576 32 -624 32
WIRE -480 32 -480 -48
WIRE -480 32 -496 32
WIRE -464 32 -480 32
WIRE -368 32 -384 32
WIRE -240 32 -240 -48
WIRE -240 32 -272 32
WIRE -32 32 -240 32
WIRE 208 32 208 -64
WIRE 208 32 48 32
WIRE 272 32 208 32
WIRE 384 32 384 -64
WIRE 384 32 352 32
WIRE -368 48 -368 32
WIRE -336 48 -368 48
WIRE -624 64 -624 32
WIRE -368 80 -368 48
WIRE 208 144 208 32
WIRE 240 144 208 144
WIRE 384 144 384 32
WIRE 592 144 384 144
WIRE 704 144 592 144
WIRE -624 160 -624 128
WIRE -368 160 -368 144
WIRE 384 160 384 144
WIRE 384 160 368 160
WIRE 240 176 16 176
WIRE 384 192 368 192
WIRE 240 208 208 208
WIRE 384 208 384 192
WIRE 672 208 384 208
WIRE 704 208 672 208
WIRE 320 240 320 224
WIRE 400 240 320 240
WIRE 592 240 592 144
WIRE 672 240 672 208
WIRE 112 320 48 320
WIRE 208 320 208 208
WIRE 208 320 192 320
WIRE 272 320 208 320
WIRE 384 320 384 208
WIRE 384 320 352 320
FLAG 704 144 Out_P700
FLAG 704 208 Out_N700
FLAG 16 176 CMRef
FLAG 304 608 0
FLAG 224 608 0
FLAG 144 608 0
FLAG 144 528 Vdd
FLAG 224 528 CMRef
FLAG 304 528 Vref
FLAG 320 128 Vdd
FLAG -912 16 In700
FLAG -912 112 0
FLAG 48 320 Vref
FLAG 672 320 0
FLAG 592 320 0
FLAG 64 608 0
FLAG 64 528 Vdd-Neg
FLAG 400 240 Vdd-Neg
FLAG -304 0 Vdd
FLAG -368 160 0
FLAG -624 160 0
FLAG -304 64 0
FLAG 704 -432 Out_P230
FLAG 704 -368 Out_N230
FLAG 16 -400 CMRef
FLAG 320 -448 Vdd
FLAG -912 -560 In230
FLAG -912 -464 0
FLAG 48 -256 Vref
FLAG 672 -256 0
FLAG 592 -256 0
FLAG 400 -336 Vdd-Neg
FLAG -304 -576 Vdd
FLAG -368 -416 0
FLAG -624 -416 0
FLAG -304 -512 0
SYMBOL ad8137 288 176 R0
SYMATTR InstName U1
SYMBOL voltage 144 512 R0
WINDOW 123 0 0 Left 0
WINDOW 39 0 0 Left 0
SYMATTR InstName V1
SYMATTR Value 3.3
SYMBOL voltage 224 512 R0
WINDOW 123 0 0 Left 0
WINDOW 39 0 0 Left 0
SYMATTR InstName V2
SYMATTR Value 1.2
SYMBOL voltage 304 512 R0
WINDOW 123 0 0 Left 0
WINDOW 39 0 0 Left 0
SYMATTR InstName V3
SYMATTR Value 1.65
SYMBOL voltage -912 16 M0
WINDOW 123 24 124 Left 2
WINDOW 39 24 152 Left 2
SYMATTR Value2 AC 1.65
SYMATTR SpiceLine Rser=15k
SYMATTR InstName V4
SYMATTR Value PULSE(0 3.3 0 1n 1n 25u 50u)
SYMBOL res 368 16 R90
WINDOW 0 0 56 VBottom 2
WINDOW 3 32 56 VTop 2
SYMATTR InstName R1
SYMATTR Value 20k
SYMBOL res 368 304 R90
WINDOW 0 0 56 VBottom 2
WINDOW 3 32 56 VTop 2
SYMATTR InstName R3
SYMATTR Value 20k
SYMBOL res 208 304 R90
WINDOW 0 0 56 VBottom 2
WINDOW 3 32 56 VTop 2
SYMATTR InstName R4
SYMATTR Value 33k
SYMBOL res 656 224 R0
SYMATTR InstName R5
SYMATTR Value 12k
SYMBOL res 576 224 R0
SYMATTR InstName R6
SYMATTR Value 12k
SYMBOL voltage 64 512 R0
WINDOW 123 0 0 Left 0
WINDOW 39 0 0 Left 0
SYMATTR InstName V5
SYMATTR Value -3.3
SYMBOL res -480 16 R90
WINDOW 0 0 56 VBottom 2
WINDOW 3 32 56 VTop 2
SYMATTR InstName R7
SYMATTR Value 750k
SYMBOL res -368 16 R90
WINDOW 0 0 56 VBottom 2
WINDOW 3 32 56 VTop 2
SYMATTR InstName R8
SYMATTR Value 240k
SYMBOL cap -496 -112 R0
SYMATTR InstName C1
SYMATTR Value 47p
SYMBOL cap -384 80 R0
SYMATTR InstName C2
SYMATTR Value 4p
SYMBOL res -656 16 R90
WINDOW 0 0 56 VBottom 2
WINDOW 3 32 56 VTop 2
SYMATTR InstName R9
SYMATTR Value 316k
SYMBOL cap -640 64 R0
SYMATTR InstName C3
SYMATTR Value 22p
SYMBOL res 64 16 R90
WINDOW 0 0 56 VBottom 2
WINDOW 3 32 56 VTop 2
SYMATTR InstName R2
SYMATTR Value 33k
SYMBOL Opamps\\AD8618 -304 -32 R0
SYMATTR InstName U2
SYMBOL ad8137 288 -400 R0
SYMATTR InstName U3
SYMBOL voltage -912 -560 M0
WINDOW 123 24 124 Left 2
WINDOW 39 24 152 Left 2
SYMATTR Value2 AC 1.65
SYMATTR SpiceLine Rser=0
SYMATTR InstName V6
SYMATTR Value PULSE(0 3.3 0 1n 1n 2u 4u)
SYMBOL res 368 -560 R90
WINDOW 0 0 56 VBottom 2
WINDOW 3 32 56 VTop 2
SYMATTR InstName R10
SYMATTR Value 20k
SYMBOL res 368 -272 R90
WINDOW 0 0 56 VBottom 2
WINDOW 3 32 56 VTop 2
SYMATTR InstName R11
SYMATTR Value 20k
SYMBOL res 208 -272 R90
WINDOW 0 0 56 VBottom 2
WINDOW 3 32 56 VTop 2
SYMATTR InstName R12
SYMATTR Value 33k
SYMBOL res 656 -352 R0
SYMATTR InstName R13
SYMATTR Value 12k
SYMBOL res 576 -352 R0
SYMATTR InstName R14
SYMATTR Value 12k
SYMBOL res -480 -560 R90
WINDOW 0 0 56 VBottom 2
WINDOW 3 32 56 VTop 2
SYMATTR InstName R15
SYMATTR Value 47k
SYMBOL res -368 -560 R90
WINDOW 0 0 56 VBottom 2
WINDOW 3 32 56 VTop 2
SYMATTR InstName R16
SYMATTR Value 16k
SYMBOL cap -496 -688 R0
SYMATTR InstName C4
SYMATTR Value 47p
SYMBOL cap -384 -496 R0
SYMATTR InstName C5
SYMATTR Value 4p
SYMBOL res -656 -560 R90
WINDOW 0 0 56 VBottom 2
WINDOW 3 32 56 VTop 2
SYMATTR InstName R17
SYMATTR Value 22k
SYMBOL cap -640 -512 R0
SYMATTR InstName C6
SYMATTR Value 22p
SYMBOL res 80 -560 R90
WINDOW 0 0 56 VBottom 2
WINDOW 3 32 56 VTop 2
SYMATTR InstName R18
SYMATTR Value 33k
SYMBOL Opamps\\AD8618 -304 -608 R0
SYMATTR InstName U4
SYMBOL cap 336 -656 R90
WINDOW 0 0 32 VBottom 2
WINDOW 3 32 32 VTop 2
SYMATTR InstName C7
SYMATTR Value 3.3p
SYMBOL cap 336 -80 R90
WINDOW 0 0 32 VBottom 2
WINDOW 3 32 32 VTop 2
SYMATTR InstName C8
SYMATTR Value 33p
TEXT -488 456 Left 2 ;.ac dec 1000 100 10Meg
TEXT 400 384 Left 2 !.include ad8137.cir
TEXT -484 432 Left 2 !.tran 500u
