Version 4
SHEET 1 1016 680
WIRE -96 32 -96 16
WIRE -48 32 -96 32
WIRE 80 32 32 32
WIRE 176 32 176 16
WIRE 176 32 80 32
WIRE 208 32 176 32
WIRE 272 32 208 32
WIRE 384 32 352 32
WIRE 208 144 208 32
WIRE 240 144 208 144
WIRE 384 144 384 32
WIRE 592 144 384 144
WIRE 704 144 592 144
WIRE 384 160 384 144
WIRE 384 160 368 160
WIRE 240 176 16 176
WIRE 384 192 368 192
WIRE 240 208 208 208
WIRE 384 208 384 192
WIRE 672 208 384 208
WIRE 704 208 672 208
WIRE 320 240 320 224
WIRE 400 240 320 240
WIRE 592 240 592 144
WIRE 672 240 672 208
WIRE 112 320 48 320
WIRE 208 320 208 208
WIRE 208 320 192 320
WIRE 272 320 208 320
WIRE 384 320 384 208
WIRE 384 320 352 320
FLAG 704 144 Out_P
FLAG 704 208 Out_N
FLAG 16 176 CMRef
FLAG 304 608 0
FLAG 224 608 0
FLAG 144 608 0
FLAG 144 528 Vdd
FLAG 224 528 CMRef
FLAG 304 528 Vref
FLAG 320 128 Vdd
FLAG -96 16 In
FLAG 176 16 AmpIn
FLAG -96 112 0
FLAG 48 320 Vref
FLAG 672 320 0
FLAG 592 320 0
FLAG 80 96 0
FLAG 64 608 0
FLAG 64 528 Vdd-Neg
FLAG 400 240 Vdd-Neg
SYMBOL ad8137 288 176 R0
SYMATTR InstName U1
SYMBOL voltage 144 512 R0
WINDOW 123 0 0 Left 0
WINDOW 39 0 0 Left 0
SYMATTR InstName V1
SYMATTR Value 3.3
SYMBOL voltage 224 512 R0
WINDOW 123 0 0 Left 0
WINDOW 39 0 0 Left 0
SYMATTR InstName V2
SYMATTR Value 1.2
SYMBOL voltage 304 512 R0
WINDOW 123 0 0 Left 0
WINDOW 39 0 0 Left 0
SYMATTR InstName V3
SYMATTR Value 1.65
SYMBOL res 48 16 R90
WINDOW 0 0 56 VBottom 2
WINDOW 3 32 56 VTop 2
SYMATTR InstName R2
SYMATTR Value 3.3k
SYMBOL voltage -96 16 M0
SYMATTR InstName V4
SYMATTR Value PULSE(0 3.3 0 25n 25n 1u 2u)
SYMBOL res 368 16 R90
WINDOW 0 0 56 VBottom 2
WINDOW 3 32 56 VTop 2
SYMATTR InstName R1
SYMATTR Value 2k
SYMBOL res 368 304 R90
WINDOW 0 0 56 VBottom 2
WINDOW 3 32 56 VTop 2
SYMATTR InstName R3
SYMATTR Value 2k
SYMBOL res 208 304 R90
WINDOW 0 0 56 VBottom 2
WINDOW 3 32 56 VTop 2
SYMATTR InstName R4
SYMATTR Value 3.3k
SYMBOL res 656 224 R0
SYMATTR InstName R5
SYMATTR Value 12k
SYMBOL res 576 224 R0
SYMATTR InstName R6
SYMATTR Value 12k
SYMBOL cap 64 32 R0
SYMATTR InstName C1
SYMATTR Value 47p
SYMBOL voltage 64 512 R0
WINDOW 123 0 0 Left 0
WINDOW 39 0 0 Left 0
SYMATTR InstName V5
SYMATTR Value -3.3
TEXT -488 456 Left 2 !.tran 10u
TEXT 400 384 Left 2 !.include ad8137.cir
